*Heading
** Job name: phd-holder-shorter Model name: Model-1
** Generated by: Abaqus/CAE 6.10-1
*Preprint, echo=NO, model=NO, history=NO, contact=NO
**
** PARTS
**
*Part, name=holder(shorter)
*Node
      1,  -5.27811003,  -7.20201826,  -18.7450008
      2,  -8.35581303,  -7.20201826,  -18.7450008
      3,  -5.27811003,  -7.20201826,  -14.7450008
      4,  -8.35581303,  -7.20201826,  -14.7450008
      5,  -12.1854591,           0.,  -18.7450008
      6,  -7.64784956,           0.,  -18.7450008
      7,  -6.37581825,           0.,  -18.7450008
      8,    -13.45749,           0.,  -18.7450008
      9,  -7.64784956,           0.,  -21.7450008
     10,  -12.1854591,           0.,  -21.7450008
     11,    -13.45749,           0.,  -21.7450008
     12,  -5.27811003,   7.20201826,  -18.7450008
     13,  -8.35581303,   7.20201826,  -18.7450008
     14,  -8.35581303,   7.20201826,  -21.7450008
     15,  -8.35581303,  -7.20201826,  -21.7450008
     16,  -10.9988089,  -11.6200781,  -18.7450008
     17, -0.737422824,  -6.98683453,  -18.7450008
     18,  -2.33759904,  -4.43857002,  -18.7450008
     19,      -5.0165,           0.,  -18.7450008
     20,  -2.33759904,   4.43857002,  -18.7450008
** ... 12705 like lines cut
*Element, type=C3D8R
  1,   41,   42,  763,  766,  871,  872, 5419, 5422
  2,   40,   41,  766,  737,  870,  871, 5422, 5393
  3,  738,  766,  763,  764, 5394, 5422, 5419, 5420
  4,   39,  765,  740,   38,  869, 5421, 5396,  868
  5,  768,  767,  747,  748, 5424, 5423, 5403, 5404
  6,  745,  767,  753,  744, 5401, 5423, 5409, 5400
  7,  743,  744,  753,  754, 5399, 5400, 5409, 5410
  8,  741,  742,  755,  739, 5397, 5398, 5411, 5395
  9,  768,  748,  749,  757, 5424, 5404, 5405, 5413
 10,  748,  747,   50,   51, 5404, 5403,  808,  809
 11,   52,  749,  748,   51,  810, 5405, 5404,  809
 12,  759,  756,  765,  737, 5415, 5412, 5421, 5393
 13,   40,  737,  765,   39,  870, 5393, 5421,  869
 14,   44,  739,  764,   43,  874, 5395, 5420,  873
 15,  739,   44,   45,  741, 5395,  874,  875, 5397
 16,  741,   45,   46,  742, 5397,  875,  876, 5398
 17,  738,  764,  739,  755, 5394, 5420, 5395, 5411
 18,  742,   46,    2,  743, 5398,  876,   62, 5399
 19,  751,  750,   53,   54, 5407, 5406,  811,  812
 20,  762,  740,  765,  756, 5418, 5396, 5421, 5412
** ... 10194 like lines cut
*End Part
**  
**
** ASSEMBLY
**
*Assembly, name=Assembly
**  
*Instance, name=holder(shorter)-1, part=holder(shorter)
*End Instance
**  
*End Assembly
** 
** MATERIALS
** 
*Material, name=Material-1
*Elastic
 0.7, 0.7
