*Heading
** Job name: phd-slot Model name: Model-1
** Generated by: Abaqus/CAE 6.10-1
*Preprint, echo=NO, model=NO, history=NO, contact=NO
**
** PARTS
**
*Part, name=slot
*Node
      1,  0.388908744,  -16.0187912,   13.8415852
      2,           0.,   -16.179884,   13.8415852
      3, -0.388908744,  -16.0187912,   13.8415852
      4,  0.550000012,  -15.6298828,   13.8415852
      5, -0.550000012,  -15.6298828,   13.8415852
      6, -0.388908744,  -15.2409744,   13.8415852
      7,           0.,  -15.0798836,   13.8415852
      8,  0.388908744,  -15.2409744,   13.8415852
      9,  0.388908744,  -13.2890463,   13.8415852
     10,           0.,  -13.4501371,   13.8415852
     11, -0.388908744,  -13.2890463,   13.8415852
     12,  0.550000012,  -12.9001369,   13.8415852
     13, -0.550000012,  -12.9001369,   13.8415852
     14, -0.388908744,  -12.5112286,   13.8415852
     15,           0.,  -12.3501368,   13.8415852
     16,  0.388908744,  -12.5112286,   13.8415852
     17,  -1.54113102,          -3.,   13.8415852
     18,  -1.54113102,         -18.,   13.8415852
     19,   1.54113102,          -3.,   13.8415852
     20,   1.54113102,         -18.,   13.8415852
** ... 1890 like lines cut
*Element, type=C3D8R
   1,  109,  164,   54,   55,  491,  546,  436,  437
   2,  105,  195,  196,  106,  487,  577,  578,  488
   3,  198,  270,  196,  195,  580,  652,  578,  577
   4,  194,  103,  102,  111,  576,  485,  484,  493
   5,  113,  192,   98,   97,  495,  574,  480,  479
   6,    1,  112,  199,    4,  383,  494,  581,  386
   7,  266,    7,    8,  187,  648,  389,  390,  569
   8,  114,  117,   74,   73,  496,  499,  456,  455
   9,  116,  146,   26,   27,  498,  528,  408,  409
  10,   27,   28,  115,  116,  409,  410,  497,  498
  11,  117,  171,   75,   74,  499,  553,  457,  456
  12,  211,  200,  151,  175,  593,  582,  533,  557
  13,  119,  153,   83,   82,  501,  535,  465,  464
  14,   72,   71,  120,  147,  454,  453,  502,  529
  15,  121,  201,  122,   14,  503,  583,  504,  396
  16,   42,   43,  155,  154,  424,  425,  537,  536
  17,  158,  157,  156,  124,  540,  539,  538,  506
  18,  125,  162,   52,   53,  507,  544,  434,  435
  19,  126,  161,   50,   51,  508,  543,  432,  433
  20,    6,  128,  203,    5,  388,  510,  585,  387
** ... 1296 like lines cut
*End Part
**  
**
** ASSEMBLY
**
*Assembly, name=Assembly
**  
*Instance, name=slot-1, part=slot
*End Instance
**  
*End Assembly
** 
** MATERIALS
** 
*Material, name=Material-1
*Elastic
 0.7, 0.7
