*Heading
** Job name: phd-holder Model name: Model-1
** Generated by: Abaqus/CAE 6.10-1
*Preprint, echo=NO, model=NO, history=NO, contact=NO
**
** PARTS
**
*Part, name=holder
*Node
      1,  -8.21665382,           0.,  -16.7450008
      2,  -11.6166544,           0.,  -16.7450008
      3,  -11.6166544,           0.,  -11.7450008
      4,  -8.21665382,           0.,  -11.7450008
      5,   -7.1290741,   5.38205862,  -16.7450008
      6,  -9.52907372,   5.38205862,  -16.7450008
      7,   -2.0533824,  -6.83471489,  -16.7450008
      8,  -3.26983571,  -4.42246246,  -16.7450008
      9,  -3.26983571,   4.42246246,  -16.7450008
     10,   -2.0533824,   6.83471489,  -16.7450008
     11,  -2.31095219,   8.05088806,  -16.7450008
     12,  -13.8584766,    8.9550333,  -16.7450008
     13,  -13.8584766,   -8.9550333,  -16.7450008
     14,  -2.31095219,  -8.05088806,  -16.7450008
     15,  -9.52907372,  -5.38205862,  -16.7450008
     16,   -7.1290741,  -5.38205862,  -16.7450008
     17,  -3.26983571,  -4.42246246,  -18.7450008
     18,   -2.0533824,  -6.83471489,  -18.7450008
     19,  -2.31095219,  -8.05088806,  -18.7450008
     20,  -13.8584766,   -8.9550333,  -18.7450008
** ... 8965 like lines cut
*Element, type=C3D8R
  1,   34,  494,  493,   33,  648, 4045, 4044,  647
  2,   33,  493,  492,   32,  647, 4044, 4043,  646
  3,   35,  489,  494,   34,  649, 4040, 4045,  648
  4,  455,  491,  492,  495, 4006, 4042, 4043, 4046
  5,  489,  488,  458,  494, 4040, 4039, 4009, 4045
  6,   42,  466,  465,   41,  556, 4017, 4016,  555
  7,  503,  473,  455,  495, 4054, 4024, 4006, 4046
  8,  477,  497,  478,  483, 4028, 4048, 4029, 4034
  9,  477,  483,  474,  496, 4028, 4034, 4025, 4047
 10,  462,  474,  475,  461, 4013, 4025, 4026, 4012
 11,  474,  462,  463,  496, 4025, 4013, 4014, 4047
 12,  475,  476,  459,  461, 4026, 4027, 4010, 4012
 13,  459,  476,  458,  488, 4010, 4027, 4009, 4039
 14,  496,  463,  464,  477, 4047, 4014, 4015, 4028
 15,  479,  456,  480,  487, 4030, 4007, 4031, 4038
 16,  499,  482,  502,  481, 4050, 4033, 4053, 4032
 17,   45,  469,  468,   44,  559, 4020, 4019,  558
 18,  456,  479,  457,  490, 4007, 4030, 4008, 4041
 19,  455,  473,  480,  456, 4006, 4024, 4031, 4007
 20,  456,  490,  491,  455, 4007, 4041, 4042, 4006
** ... 6914 like lines cut
*End Part
**  
**
** ASSEMBLY
**
*Assembly, name=Assembly
**  
*Instance, name=holder-1, part=holder
*End Instance
**  
*End Assembly
** 
** MATERIALS
** 
*Material, name=Material-1
*Elastic
 0.7, 0.7
