*Heading
** Job name: phd-bolt Model name: Model-1
** Generated by: Abaqus/CAE 6.10-1
*Preprint, echo=NO, model=NO, history=NO, contact=NO
**
** PARTS
**
*Part, name=bolt
*Node
      1,   29.7202892,  -19.2751083,   4.06400013
      2,   29.7202892,  -17.0175724,   4.06400013
      3,   27.7987671,  -17.0175724,   4.06400013
      4,   27.7987671,  -15.0960503,   4.06400013
      5,   25.5412331,  -15.0960503,   4.06400013
      6,   25.5412331,  -17.0175724,   4.06400013
      7,    23.619709,  -17.0175724,   4.06400013
      8,    23.619709,  -19.2751083,   4.06400013
      9,   25.5412331,  -19.2751083,   4.06400013
     10,   25.5412331,  -21.1966305,   4.06400013
     11,   27.7987671,  -21.1966305,   4.06400013
     12,   27.7987671,  -19.2751083,   4.06400013
     13,   30.1625004,  -18.1463394,   4.06400013
     14,   23.1774998,  -18.1463394,   4.06400013
     15,   29.7202892,  -19.2751083,   1.06400013
     16,   29.7202892,  -17.0175724,   1.06400013
     17,   27.7987671,  -17.0175724,   1.06400013
     18,   27.7987671,  -15.0960503,   1.06400013
     19,   25.5412331,  -15.0960503,   1.06400013
     20,   25.5412331,  -17.0175724,   1.06400013
** ... 8151 like lines cut
*Element, type=C3D8R
   1,  775,    2,   62,  702, 3394,  237, 1590, 3321
   2,   62,   63,  701,  702, 1590, 1589, 3320, 3321
   3,  757,  787,  718,  743, 3376, 3406, 3337, 3362
   4,  153,  154,  788,  777, 1339, 1340, 3407, 3396
   5,  703,  151,  152,  776, 3322, 1337, 1338, 3395
   6,  150,    4,   70,  149, 1336,  217, 1073, 1335
   7,  145,  758,    5,  144, 1331, 3377,  230, 1330
   8,  147,   72,   73,  761, 1333, 1071, 1070, 3380
   9,  704,  144,    5,   75, 3323, 1330,  230, 1562
  10,  143,  144,  704,  705, 1329, 1330, 3323, 3324
  11,  760,  739,  706,  756, 3379, 3358, 3325, 3375
  12,  722,  745,  741,  707, 3341, 3364, 3360, 3326
  13,  138,  139,  708,  762, 1324, 1325, 3327, 3381
  14,  762,  763,  137,  138, 3381, 3382, 1323, 1324
  15,   83,  764,  763,    7, 1010, 3383, 3382,  196
  16,  765,   84,   85,  766, 3384, 1009, 1008, 3385
  17,  131,  132,  769,  710, 1161, 1162, 3388, 3329
  18,   87,  768,  767,   86, 1006, 3387, 3386, 1007
  19,  709,   88,   89,  726, 3328, 1506, 1505, 3345
  20,  783,    8,   88,  709, 3402,  209, 1506, 3328
** ... 6840 like lines cut
*End Part
**  
**
** ASSEMBLY
**
*Assembly, name=Assembly
**  
*Instance, name=bolt-1, part=bolt
*End Instance
**  
*End Assembly
** 
** MATERIALS
** 
*Material, name=Material-1
*Elastic
 0.7, 0.7
